Circuit: * C:\Users\ohvic\Documents\ITBA\ASSD-2020-G4\TP1 - Muestreo\OSC\oscilador_exp.asc

WARNING: Less than two connections to node NC_01.  This node is used by R:X2:2.
Direct Newton iteration for .op point succeeded.

Date: Tue Apr  7 11:44:35 2020
Total elapsed time: 0.128 seconds.

tnom = 27
temp = 27
method = modified trap
totiter = 11519
traniter = 11503
tranpoints = 3138
accept = 2555
rejected = 583
matrix size = 20
fillins = 6
solver = Normal
Matrix Compiler1: 950 bytes object code size  0.2/0.1/[0.1]
Matrix Compiler2: off  [0.1]/0.2/0.2

