Circuit: * C:\Users\ohvic\Documents\ITBA\ASSD-2020-G4\TP1 - Muestreo\OSC\oscilador_exp.asc

WARNING: Less than two connections to node NC_01.  This node is used by R:X2:2.
Direct Newton iteration for .op point succeeded.

Date: Mon Apr  6 19:00:38 2020
Total elapsed time: 0.185 seconds.

tnom = 27
temp = 27
method = modified trap
totiter = 31196
traniter = 31182
tranpoints = 7887
accept = 6031
rejected = 1856
matrix size = 20
fillins = 6
solver = Normal
Matrix Compiler1: 950 bytes object code size  0.2/0.1/[0.1]
Matrix Compiler2: off  [0.1]/0.2/0.1

