Circuit: * C:\Users\Abril\Documents\GitHub\ASSD-2020-G4\TP1 - Muestreo\SPICE FINAL\muestreo_natural.asc

Error on line 9 : v5 n001 0 v = sin(2 
	 Unknown parameter "v"
V5: Missing value, assumed 0V @ DC
Early termination of direct N-R iteration.
Direct Newton iteration failed to find .op point.  (Use ".option noopiter" to skip.)
Starting Gmin stepping
Gmin = 10
vernier = 0.5
vernier = 0.25
vernier = 0.125
Gmin = 5.5165
vernier = 0.0625
vernier = 0.03125
vernier = 0.015625
vernier = 0.0078125
Gmin = 5.49501
vernier = 0.00390625
vernier = 0.00195313
vernier = 0.000976563
vernier = 0.000488281
Gmin = 5.50104
Gmin = 0
Gmin stepping failed

Starting source stepping with srcstepmethod=0
Source Step = 3.0303%
Source Step = 33.3333%
Source Step = 63.6364%
Source Step = 93.9394%
Source stepping succeeded in finding the operating point.

Ignoring empty pin current: Ix(x1:ctrl)
Ignoring empty pin current: Ix(x1:ctrl)

Date: Tue Apr 07 18:31:18 2020
Total elapsed time: 12.682 seconds.

tnom = 27
temp = 27
method = modified trap
totiter = 34258
traniter = 32555
tranpoints = 16166
accept = 12806
rejected = 3360
matrix size = 223
fillins = 4399
solver = Normal
Thread vector: 45.5/19.4[4] 11.7/5.6[4] 26.3/19.9[4] 4.2/6.7[1]  2592/500
Matrix Compiler1: 1.31 MB object code size  412.4/255.4/[110.3]
Matrix Compiler2: 95.73 KB object code size  51.8/43.0/[11.8]

