Circuit: * C:\Users\Abril\Documents\GitHub\ASSD-2020-G4\TP1 - Muestreo\SPICE FINAL\muestreo_natural.asc

Early termination of direct N-R iteration.
Direct Newton iteration failed to find .op point.  (Use ".option noopiter" to skip.)
Starting Gmin stepping
Gmin = 10
vernier = 0.5
vernier = 0.25
vernier = 0.125
Gmin = 5.5165
vernier = 0.0625
vernier = 0.03125
vernier = 0.015625
vernier = 0.0078125
Gmin = 5.49501
vernier = 0.00390625
vernier = 0.00195313
vernier = 0.000976563
vernier = 0.000488281
Gmin = 5.50104
Gmin = 0
Gmin stepping failed

Starting source stepping with srcstepmethod=0
Source Step = 3.0303%
Source Step = 33.3333%
Source Step = 63.6364%
Source Step = 93.9394%
Source stepping succeeded in finding the operating point.

Ignoring empty pin current: Ix(x1:ctrl)
Ignoring empty pin current: Ix(x1:ctrl)

Date: Tue Apr 07 17:33:35 2020
Total elapsed time: 15.642 seconds.

tnom = 27
temp = 27
method = modified trap
totiter = 70758
traniter = 69072
tranpoints = 33954
accept = 27373
rejected = 6581
matrix size = 201
fillins = 3719
solver = Normal
Thread vector: 47.7/19.5[4] 10.2/6.8[4] 26.5/13.4[4] 4.1/25.0[1]  2592/500
Matrix Compiler1: 1.03 MB object code size  320.1/182.1/[83.4]
Matrix Compiler2: 81.64 KB object code size  30.0/27.2/[11.1]

