Circuit: * C:\Users\ohvic\Documents\ITBA\ASSD-2020-G4\TP1 - Muestreo\SH\lf398.asc

Direct Newton iteration for .op point succeeded.

Date: Sun Apr  5 17:04:20 2020
Total elapsed time: 1.510 seconds.

tnom = 27
temp = 27
method = modified trap
totiter = 60261
traniter = 60224
tranpoints = 30069
accept = 30052
rejected = 17
matrix size = 41
fillins = 62
solver = Normal
Matrix Compiler1: 6.21 KB object code size  1.0/0.9/[0.8]
Matrix Compiler2: off  [0.4]/1.6/1.0

