Circuit: * C:\Users\Abril\Documents\GitHub\ASSD-2020-G4\TP1 - Muestreo\SH\sh.asc

Direct Newton iteration failed to find .op point.  (Use ".option noopiter" to skip.)
Starting Gmin stepping
Gmin = 10
Gmin = 1.07374
Gmin = 0.115292
Gmin = 0.0123794
Gmin = 0.00132923
Gmin = 0.000142725
Gmin = 1.5325e-005
Gmin = 1.6455e-006
Gmin = 1.76685e-007
Gmin = 1.89714e-008
Gmin = 2.03704e-009
Gmin = 2.18725e-010
Gmin = 2.34854e-011
Gmin = 2.52173e-012
Gmin = 2.70769e-013
Gmin = 0
Gmin stepping succeeded in finding the operating point.


Date: Tue Apr 07 14:48:48 2020
Total elapsed time: 0.353 seconds.

tnom = 27
temp = 27
method = modified trap
totiter = 33732
traniter = 33368
tranpoints = 14398
accept = 11981
rejected = 2417
matrix size = 45
fillins = 11
solver = Normal
Matrix Compiler1: 2.39 KB object code size  0.8/0.5/[0.1]
Matrix Compiler2: off  [0.4]/0.8/0.5

