Circuit: * C:\Users\ohvic\Documents\ITBA\ASSD-2020-G4\TP1 - Muestreo\Filtro LP\SPICE\Draft1.asc

Direct Newton iteration failed to find .op point.  (Use ".option noopiter" to skip.)
Starting Gmin stepping
Increasing initial diagonal Gmin to 100
Gmin = 100
vernier = 0.5
vernier = 0.25
Gmin = 34.2672
vernier = 0.125
vernier = 0.0625
vernier = 0.03125
vernier = 0.015625
Gmin = 33.0995
vernier = 0.0078125
vernier = 0.00390625
vernier = 0.00195313
Gmin = 32.9705
vernier = 0.000976563
vernier = 0.000488281
Gmin = 0
Gmin stepping failed

Starting source stepping with srcstepmethod=0
Source Step = 3.0303%
Source Step = 33.3333%
Source Step = 63.6364%
Source Step = 93.9394%
Source stepping succeeded in finding the operating point.

Ignoring empty pin current: Ix(x1:gnd)
Ignoring empty pin current: Ix(x2:gnd)
Ignoring empty pin current: Ix(x3:gnd)
Ignoring empty pin current: Ix(x4:gnd)
Ignoring empty pin current: Ix(x1:gnd)
Ignoring empty pin current: Ix(x2:gnd)
Ignoring empty pin current: Ix(x3:gnd)
Ignoring empty pin current: Ix(x4:gnd)

Date: Mon Apr  6 18:33:09 2020
Total elapsed time: 0.166 seconds.

tnom = 27
temp = 27
method = trap
totiter = 1774
traniter = 0
tranpoints = 0
accept = 0
rejected = 0
matrix size = 102
fillins = 167
solver = Normal
Matrix Compiler1:     695 opcodes
Matrix Compiler2: 11.74 KB object code size  0.9/1.4/[0.5]

