Circuit: * C:\Users\ohvic\Documents\ITBA\ASSD-2020-G4\TP1 - Muestreo\Filtro LP\SPICE\LPRauch.asc

WARNING: Less than two connections to node VIN.  This node is used by V1.
WARNING: Less than two connections to node NC_01.  This node is used by R:X2:1.
WARNING: Less than two connections to node NC_02.  This node is used by R:X3:1.
WARNING: Less than two connections to node NC_03.  This node is used by R:X4:1.
Direct Newton iteration failed to find .op point.  (Use ".option noopiter" to skip.)
Starting Gmin stepping
Gmin = 10
vernier = 0.5
vernier = 0.25
vernier = 0.125
Gmin = 5.5165
vernier = 0.0625
vernier = 0.03125
vernier = 0.015625
vernier = 0.0078125
Gmin = 5.49501
vernier = 0.00390625
vernier = 0.00195313
vernier = 0.000976563
vernier = 0.000488281
Gmin = 5.50104
Gmin = 0
Gmin stepping failed

Starting source stepping with srcstepmethod=0
Source Step = 3.0303%
Source Step = 33.3333%
Source Step = 63.6364%
Source Step = 93.9394%
Source stepping succeeded in finding the operating point.

Ignoring empty pin current: Ix(x1:gnd)
Ignoring empty pin current: Ix(x2:gnd)
Ignoring empty pin current: Ix(x3:gnd)
Ignoring empty pin current: Ix(x4:gnd)
Ignoring empty pin current: Ix(x1:gnd)
Ignoring empty pin current: Ix(x2:gnd)
Ignoring empty pin current: Ix(x3:gnd)
Ignoring empty pin current: Ix(x4:gnd)

Date: Sat Apr  4 12:05:13 2020
Total elapsed time: 0.229 seconds.

tnom = 27
temp = 27
method = trap
totiter = 1732
traniter = 0
tranpoints = 0
accept = 0
rejected = 0
matrix size = 106
fillins = 176
solver = Normal
Matrix Compiler1:     662 opcodes
Matrix Compiler2: 12.11 KB object code size  1.3/1.4/[0.7]

