Circuit: * C:\Users\ohvic\Documents\ITBA\ASSD-2020-G4\TP1 - Muestreo\Filtro LP\SPICE\LPRauch.asc

Direct Newton iteration for .op point succeeded.

Date: Fri Apr  3 15:27:19 2020
Total elapsed time: 0.063 seconds.

tnom = 27
temp = 27
method = trap
totiter = 18
traniter = 0
tranpoints = 0
accept = 0
rejected = 0
matrix size = 30
fillins = 32
solver = Normal
Matrix Compiler1:     160 opcodes
Matrix Compiler2: 3.01 KB object code size
