Circuit: * C:\Users\ohvic\Documents\ITBA\ASSD-2020-G4\TP1 - Muestreo\Filtro LP\SPICE\PruebaImpedancia.asc

WARNING: Less than two connections to node NC_01.  This node is used by R:X1:1.
WARNING: Less than two connections to node NC_05.  This node is used by R:X2:1.
WARNING: Less than two connections to node NC_09.  This node is used by R:X3:1.
WARNING: Less than two connections to node NC_13.  This node is used by R:X4:1.
WARNING: Less than two connections to node NC_17.  This node is used by R:X6:1.
Direct Newton iteration failed to find .op point.  (Use ".option noopiter" to skip.)
Starting Gmin stepping
Increasing initial diagonal Gmin to 100
Gmin = 100
vernier = 0.5
vernier = 0.25
Gmin = 30.8405
vernier = 0.125
vernier = 0.0625
vernier = 0.03125
vernier = 0.015625
Gmin = 30.1306
vernier = 0.0078125
vernier = 0.00390625
vernier = 0.00195313
vernier = 0.000976563
Gmin = 29.9549
vernier = 0.000488281
Gmin = 0
Gmin stepping failed

Starting source stepping with srcstepmethod=0
Source Step = 3.0303%
Source Step = 28.0303%
Source Step = 29.7348%
Source Step = 31.6288%
Source Step = 33.5227%
Source Step = 35.4167%
Source Step = 37.3106%
vernier = 0.09375
Source Step = 39.9621%
Source Step = 42.803%
Source Step = 45.6439%
Source Step = 48.4848%
Source Step = 51.3258%
vernier = 0.140625
Source Step = 55.161%
Source Step = 59.4223%
Source Step = 63.6837%
Source Step = 67.9451%
Source Step = 72.2064%
vernier = 0.210938
Source Step = 77.7462%
Source Step = 84.1383%
Source Step = 90.5303%
Source Step = 96.9223%
Source stepping succeeded in finding the operating point.

Ignoring empty pin current: Ix(x1:gnd)
Ignoring empty pin current: Ix(x2:gnd)
Ignoring empty pin current: Ix(x3:gnd)
Ignoring empty pin current: Ix(x4:gnd)
Ignoring empty pin current: Ix(x5:gnd)
Ignoring empty pin current: Ix(x6:gnd)
Ignoring empty pin current: Ix(x1:gnd)
Ignoring empty pin current: Ix(x2:gnd)
Ignoring empty pin current: Ix(x3:gnd)
Ignoring empty pin current: Ix(x4:gnd)
Ignoring empty pin current: Ix(x5:gnd)
Ignoring empty pin current: Ix(x6:gnd)

Date: Sat Apr  4 12:28:35 2020
Total elapsed time: 0.350 seconds.

tnom = 27
temp = 27
method = trap
totiter = 2762
traniter = 0
tranpoints = 0
accept = 0
rejected = 0
matrix size = 162
fillins = 458
solver = Normal
Matrix Compiler1:    1975 opcodes
Matrix Compiler2: 21.15 KB object code size  2.7/2.9/[0.8]

